Version 4
SHEET 1 880 680
WIRE 256 -144 -192 -144
WIRE 256 48 256 -144
WIRE 256 160 256 128
WIRE 96 240 -96 240
WIRE 208 240 176 240
WIRE -192 272 -192 -144
WIRE -96 272 -96 240
WIRE -192 384 -192 352
WIRE -96 384 -96 352
WIRE -96 384 -192 384
WIRE 256 384 256 256
WIRE 256 384 -96 384
WIRE -96 416 -96 384
WIRE 0 0 0 0
FLAG -96 416 0
SYMBOL nmos 208 160 R0
SYMATTR InstName M1
SYMATTR Value 2N7002
SYMBOL res 240 32 R0
SYMATTR InstName R1
SYMATTR Value 91
SYMBOL res 80 256 R270
WINDOW 0 32 56 VTop 2
WINDOW 3 0 56 VBottom 2
SYMATTR InstName R2
SYMATTR Value 2.2k
SYMBOL voltage -96 256 R0
WINDOW 123 0 0 Left 2
WINDOW 39 0 0 Left 2
SYMATTR InstName V1
SYMATTR Value PULSE(0 5 0 1p 1p 5u 10u)
SYMBOL voltage -192 256 R0
WINDOW 123 0 0 Left 2
WINDOW 39 0 0 Left 2
SYMATTR InstName V2
SYMATTR Value 20
TEXT -224 440 Left 2 !.tran 1m
